/*--------------------------------*- C++ -*----------------------------------*\
| =========                 |                                                 |
| \\      /  F ield         | OpenFOAM: The Open Source CFD Toolbox           |
|  \\    /   O peration     | Version:  12                                    |
|   \\  /    A nd           | Website:  www.openfoam.org                      |
|    \\/     M anipulation  |                                                 |
\*---------------------------------------------------------------------------*/
FoamFile
{
    version     2.0;
    format      ascii;
    class       dictionary;
    object      controlDict;
}
// * * * * * * * * * * * * * * * * * * * * * * * * * * * * * * * * * * * * * //

application     foamRun;

startFrom       startTime;
startTime       0;
stopAt          endTime;
endTime         3000;
deltaT          1;

writeControl    timeStep;
writeInterval   500;
purgeWrite      0;
writeFormat     ascii;
writePrecision  8;
writeCompression off;
timeFormat      general;
timePrecision   6;
runTimeModifiable true;

functions
{
    forces
    {
        type            forces;
        libs            ("libforces");
        patches         (cylinder);
        rho             rhoInf;
        rhoInf          1.225;
        CofR            (0 0 0);
        writeControl    timeStep;
        writeInterval   100;
    }

    forceCoeffs
    {
        type            forceCoeffs;
        libs            ("libforces");
        patches         (cylinder);
        rho             rhoInf;
        rhoInf          1.225;
        CofR            (0 0 0);
        liftDir         (0 1 0);
        dragDir         (1 0 0);
        pitchAxis       (0 0 1);
        magUInf         20;
        lRef            4;
        Aref            4;
        writeControl    timeStep;
        writeInterval   100;
    }
}

// * * * * * * * * * * * * * * * * * * * * * * * * * * * * * * * * * * * * * //
