/*--------------------------------*- C++ -*----------------------------------*\
| =========                 |                                                 |
| \\      /  F ield         | OpenFOAM: The Open Source CFD Toolbox           |
|  \\    /   O peration     | Version:  12                                    |
|   \\  /    A nd           | Website:  www.openfoam.org                      |
|    \\/     M anipulation  |                                                 |
\*---------------------------------------------------------------------------*/
FoamFile
{
    version     2.0;
    format      ascii;
    class       dictionary;
    object      fvSolution;
}
// * * * * * * * * * * * * * * * * * * * * * * * * * * * * * * * * * * * * * //

solvers
{
    p
    {
        solver          GAMG;
        smoother        GaussSeidel;
        tolerance       1e-7;
        relTol          0.01;
    }

    U
    {
        solver          smoothSolver;
        smoother        GaussSeidel;
        tolerance       1e-7;
        relTol          0.01;
    }

    k
    {
        solver          smoothSolver;
        smoother        GaussSeidel;
        tolerance       1e-7;
        relTol          0.01;
    }

    omega
    {
        solver          smoothSolver;
        smoother        GaussSeidel;
        tolerance       1e-7;
        relTol          0.01;
    }
}

SIMPLE
{
    nNonOrthogonalCorrectors 1;
    consistent      yes;
    pRefPoint       (80 0 0);
    pRefValue       0;
    residualControl
    {
        p               1e-5;
        U               1e-5;
        k               1e-4;
        omega           1e-4;
    }
}

relaxationFactors
{
    equations
    {
        U               0.5;
        k               0.5;
        omega           0.5;
    }
}

// * * * * * * * * * * * * * * * * * * * * * * * * * * * * * * * * * * * * * //
